CM Copyright (C) 1998,2005 Adrian Agogino, Ken Harker, Joop Stakenborg
CM YAGI
CE
GW 1 5 0.000000 -494.949000 0.000000 0.000000 494.949000 0.000000 5.000000
GW 2 5 669.467000 -463.206000 0.000000 669.467000 463.206000 0.000000 5.000000
GW 3 5 1406.145000 -455.733000 0.000000 1406.145000 455.733000 0.000000 5.000000
GW 4 5 2024.465000 -450.898000 0.000000 2024.465000 450.898000 0.000000 5.000000
GW 5 5 2952.863000 -437.193000 0.000000 2952.863000 437.193000 0.000000 5.000000
GW 6 5 3649.681000 -456.451000 0.000000 3649.681000 456.451000 0.000000 5.000000
GW 7 5 3920.000000 -1430.000000 -1410.000000 3920.000000 -1430.000000 1428.000000 5.000000
GW 9 5 3920.000000 1332.000000 1428.000000 3920.000000 1332.000000 -1410.000000 5.000000
GW 7 5 3920.000000 -1430.000000 -1410.000000 3920.000000 1332.000000 -1410.000000 4.450000
GW 7 5 3920.000000 -1430.000000 -1410.000000 3920.000000 -1430.000000 1428.000000 4.450000
GW 7 5 3920.000000 -1430.000000 -1126.200000 3920.000000 1332.000000 -1126.200000 4.550000
GW 7 5 3920.000000 -1153.800000 -1410.000000 3920.000000 -1153.800000 1428.000000 4.550000
GW 7 5 3920.000000 -1430.000000 -842.400000 3920.000000 1332.000000 -842.400000 4.550000
GW 7 5 3920.000000 -877.600000 -1410.000000 3920.000000 -877.600000 1428.000000 4.550000
GW 7 5 3920.000000 -1430.000000 -558.600000 3920.000000 1332.000000 -558.600000 4.450000
GW 7 5 3920.000000 -601.400000 -1410.000000 3920.000000 -601.400000 1428.000000 4.450000
GW 7 5 3920.000000 -1430.000000 -274.800000 3920.000000 1332.000000 -274.800000 4.450000
GW 7 5 3920.000000 -325.200000 -1410.000000 3920.000000 -325.200000 1428.000000 4.450000
GW 7 5 3920.000000 -1430.000000 9.000000 3920.000000 1332.000000 9.000000 4.450000
GW 7 5 3920.000000 -49.000000 -1410.000000 3920.000000 -49.000000 1428.000000 4.450000
GW 7 5 3920.000000 -1430.000000 292.800000 3920.000000 1332.000000 292.800000 4.350000
GW 7 5 3920.000000 227.200000 -1410.000000 3920.000000 227.200000 1428.000000 4.350000
GW 7 5 3920.000000 -1430.000000 576.600000 3920.000000 1332.000000 576.600000 4.350000
GW 7 5 3920.000000 503.400000 -1410.000000 3920.000000 503.400000 1428.000000 4.350000
GW 7 5 3920.000000 -1430.000000 860.400000 3920.000000 1332.000000 860.400000 4.350000
GW 7 5 3920.000000 779.600000 -1410.000000 3920.000000 779.600000 1428.000000 4.350000
GW 7 5 3920.000000 -1430.000000 1144.200000 3920.000000 1332.000000 1144.200000 4.350000
GW 7 5 3920.000000 1055.800000 -1410.000000 3920.000000 1055.800000 1428.000000 4.350000
GW 7 5 3920.000000 -1430.000000 1428.000000 3920.000000 1332.000000 1428.000000 4.450000
GW 7 5 3920.000000 1332.000000 -1410.000000 3920.000000 1332.000000 1428.000000 4.450000
GM  0    0      .000      .000      .000  1695.745  2040.843      .000     .000
GS  0    0      .001      .000      .000      .000      .000      .000     .000
GE  0    0      .000      .000      .000      .000      .000      .000     .000
FR  0    1    0   0   144.100000     .0000     .0000     .0000    .0000    .0000
EK  0    0    0   0  .0000E+00     .0000     .0000     .0000     .0000    .0000
LD  5    1    0   0  .2701E+08     .0000     .0000     .0000     .0000    .0000
LD  5    2    0   0  .2701E+08     .0000     .0000     .0000     .0000    .0000
LD  5    3    0   0  .2701E+08     .0000     .0000     .0000     .0000    .0000
LD  5    4    0   0  .2701E+08     .0000     .0000     .0000     .0000    .0000
LD  5    5    0   0  .2701E+08     .0000     .0000     .0000     .0000    .0000
LD  5    6    0   0  .2701E+08     .0000     .0000     .0000     .0000    .0000
KH  0    0    0   0  .1500E+01     .0000     .0000     .0000     .0000    .0000
EX  0    2    3   0  .1000E+01     .0000     .0000     .0000     .0000    .0000
RP  0   72   72    1001   0   0   5   5     0   0
PQ  0
EN

