CM EXAMPLE 1.  CENTER FED LINEAR ANTENNA
CE
GW  0	7	0.	0.	-.25	0.	0.	.25	.001
GE
EX  0    0    3    0  .1000E+01     .0000     .0000     .0000     .0000    .0000
RP  0   72   72  1001  0            0           5         5
XQ
LD  0    0    4    4   10.     3.000E-09 5.300E-11
EN

