CM Copyright (C) 1998,2005 Adrian Agogino, Ken Harker, Joop Stakenborg
CM YAGI
CE
GW  1    21      .000    -494.949   .000        .000  494.949      .000   5.000
GW  2    21   669.467    -463.206   .000     669.467  463.206      .000   5.000
GW  3    21  1406.145    -455.733   .000    1406.145  455.733      .000   5.000
GW  4    21  2024.465    -450.898   .000    2024.465  450.898      .000   5.000
GW  5    21  2952.863    -437.193   .000    2952.863  437.193      .000   5.000
GW  6    21  3649.681    -456.451   .000    3649.681  456.451      .000   5.000
GM  0    0      .000      .000      .000     0.000     0.000       .000     .000
GS  0    0      .001      .000      .000      .000      .000      .000     .000
GE  0    0      .000      .000      .000      .000      .000      .000     .000
FR  0    1    0   0  .1441E+03     .0000     .0000     .0000     .0000    .0000
EK  0    0    0   0  .0000E+00     .0000     .0000     .0000     .0000    .0000
LD  5    1    0   0  .2701E+08     .0000     .0000     .0000     .0000    .0000
LD  5    2    0   0  .2701E+08     .0000     .0000     .0000     .0000    .0000
LD  5    3    0   0  .2701E+08     .0000     .0000     .0000     .0000    .0000
LD  5    4    0   0  .2701E+08     .0000     .0000     .0000     .0000    .0000
LD  5    5    0   0  .2701E+08     .0000     .0000     .0000     .0000    .0000
LD  5    6    0   0  .2701E+08     .0000     .0000     .0000     .0000    .0000
KH  0    0    0   0  .1500E+01     .0000     .0000     .0000     .0000    .0000
EX  0    2    3   0  .1000E+01     .0000     .0000     .0000     .0000    .0000
RP  0   72   72   1001       0         1         5         5
PQ  0
EN

