CM 2004 (c) Marc UME (marc.ume@digitalgraphics.be)
CM Yagi 2412 MHz
CM
CE
GW 1 15 -31.568 -27.848 0 -31.568 27.848 0 1.12838
GW 2 15 24.612 -25.466 0 24.612 25.466 0 1.12838
GW 3 15 50.631 -22.041 0 50.631 22.041 0 1.12838
GW 4 15 75.546 -22.041 0 75.546 22.041 0 1.12838
GW 5 15 99.022 -21.88 0 99.022 21.88 0 1.12838
GW 6 15 132.08 -23.979 0 132.08 23.979 0 1.12838
GW 7 15 160.4 -21.731 0 160.4 21.731 0 1.12838
GW 8 15 183.11 -24.315 0 183.11 24.315 0 1.12838
GW 9 15 215.63 -23.999 0 215.63 23.999 0 1.12838
GW 16 1 0 -1 -9.8148 0 1 -9.8148 1.12838
GW 17 4 0 1 -9.8148 0 22.034 -9.8148 1.12838
GW 18 3 0 22.034 -9.8148 0 22.034 9.8148 1.12838
GW 19 8 0 22.034 9.8148 0 -22.034 9.8148 1.12838
GW 20 3 0 -22.034 9.8148 0 -22.034 -9.8148 1.12838
GW 21 4 0 -22.034 -9.8148 0 -1 -9.8148 1.12838
GS 0 0 0.001
GE 0
EK 0
EX 0 16 1 00 1.0 0.0
GN -1
FR 0 1 0 0  2412.0
RP  0   72   72    1001   0   0   5   5     0   0
EN

