CM Copyright (C) 1998,2005 Adrian Agogino, Ken Harker, Joop Stakenborg
CM 100% F/B su tutta la banda
CM Free Space
CM  14.170 MHz
CM  4 wires, millimeters
CM 1 source
CM 35 1 0
CMPP  1, 1, 0, 0, 0
CE 0 loads
GW 1 24 -3886.200000 -5314.869600 0.000000 -3886.200000 5314.869600 0.000000 50.000000
GW 2 25 -2748.618700 -5002.600100 0.000000 -2748.618700 5002.600100 0.000000 50.000000
GW 3 24 -1098.668800 -4873.630900 0.000000 -1098.668800 4873.630900 0.000000 50.000000
GW 4 24 3886.200000 -4404.001000 0.000000 3886.200000 4404.001000 0.000000 50.000000
GS 0  0  .001
GE  0
FR  0    1    0   0    14.170     .0000     .0000     .0000    .0000    .0000
EX  0    2    13  0.1   0
RP  0    72   72  1001  0   0   5   5     0   0
EN

